Version 4
SHEET 1 1360 680
WIRE 64 32 -96 32
WIRE 144 32 64 32
WIRE 368 32 304 32
WIRE 448 32 368 32
WIRE 512 32 448 32
WIRE 640 32 592 32
WIRE 720 32 640 32
WIRE 896 32 784 32
WIRE 912 32 896 32
WIRE 144 64 112 64
WIRE 368 64 368 32
WIRE 368 64 304 64
WIRE 112 128 112 64
WIRE 320 128 112 128
WIRE 512 128 320 128
WIRE 640 128 640 32
WIRE 640 128 592 128
WIRE -96 256 -96 32
WIRE 64 256 64 32
WIRE 320 256 320 192
WIRE 352 256 320 256
WIRE 448 256 448 32
WIRE 448 256 432 256
WIRE 640 256 640 128
WIRE 912 256 912 32
WIRE 320 304 320 256
WIRE 320 304 304 304
WIRE 304 368 304 304
WIRE 496 368 480 368
WIRE 640 368 640 336
WIRE 640 368 496 368
WIRE 640 384 640 368
WIRE 480 432 480 368
WIRE 480 432 416 432
WIRE 496 432 496 368
WIRE -96 608 -96 336
WIRE 64 608 64 320
WIRE 64 608 -96 608
WIRE 304 608 304 480
WIRE 304 608 64 608
WIRE 320 608 304 608
WIRE 448 608 448 320
WIRE 448 608 320 608
WIRE 496 608 496 512
WIRE 496 608 448 608
WIRE 640 608 640 464
WIRE 640 608 496 608
WIRE 912 608 912 336
WIRE 912 608 640 608
WIRE 320 624 320 608
FLAG 320 624 0
FLAG 896 32 Vbatt
FLAG 640 32 Vout
SYMBOL res 608 16 R90
WINDOW 0 2 57 VBottom 2
WINDOW 3 36 54 VTop 2
SYMATTR InstName R1
SYMATTR Value 2.7
SYMBOL res 608 112 R90
WINDOW 0 0 56 VBottom 2
WINDOW 3 32 56 VTop 2
SYMATTR InstName R2
SYMATTR Value 1K
SYMBOL res 624 240 R0
SYMATTR InstName R3
SYMATTR Value 12K
SYMBOL schottky 720 48 R270
WINDOW 0 32 32 VTop 2
WINDOW 3 0 32 VBottom 2
SYMATTR InstName D1
SYMATTR Value SS24
SYMATTR Description Diode
SYMATTR Type diode
SYMBOL voltage -96 240 R0
WINDOW 123 0 0 Left 2
WINDOW 39 0 0 Left 2
SYMATTR InstName V1
SYMATTR Value 18V
SYMBOL voltage 912 240 R0
WINDOW 123 0 0 Left 2
WINDOW 39 24 124 Left 2
WINDOW 3 9 75 Left 2
SYMATTR SpiceLine Rser=0.1 Cpar=1
SYMATTR Value 13.6V
SYMATTR InstName V2
SYMBOL res 624 368 R0
SYMATTR InstName R4
SYMATTR Value 2.4k
SYMBOL cap 48 256 R0
SYMATTR InstName C1
SYMATTR Value 0.1µF
SYMBOL cap 432 256 R0
SYMATTR InstName C2
SYMATTR Value 10µF
SYMBOL diode 304 128 R0
SYMATTR InstName D4
SYMATTR Value 1N4148
SYMBOL res 448 240 R90
WINDOW 0 0 56 VBottom 2
WINDOW 3 32 56 VTop 2
SYMATTR InstName R5
SYMATTR Value 1K
SYMBOL AutoGenerated\\TL431ED 304 432 R0
SYMATTR InstName U3
SYMBOL AutoGenerated\\LM317_TRANS 224 48 R0
SYMATTR InstName U4
TEXT 936 88 Left 2 !;op
TEXT 936 48 Left 2 !.dc V2 8 15.4 .01
TEXT 936 128 Left 2 !;.step param t 0 50 5
TEXT 88 -216 Left 2 ;U1pwr = (V(n001)-V(n002))*Ix(U1:In)
TEXT 328 -376 Center 6 ;CC/CV SLA float charger\n13.8V 450mA
TEXT -136 648 Left 2 !;tran 12s
